[root]
type=Root
children=system
eventq_index=0
full_system=false
sim_quantum=0
time_sync_enable=false
time_sync_period=100000000000
time_sync_spin_threshold=100000000

[system]
type=System
children=clk_domain cpu00 cpu01 cpu02 cpu03 cpu04 cpu05 cpu06 cpu07 cpu08 cpu09 cpu10 cpu11 cpu12 cpu13 cpu14 cpu15 cpu_clk_domain cpu_voltage_domain dvfs_handler hmc_dev hmc_host membus redirect_paths0 redirect_paths1 redirect_paths2 voltage_domain
boot_osflags=a
cache_line_size=64
eventq_index=0
exit_on_work_items=false
init_param=0
kernel=
kernel_addr_check=true
kernel_extras=
kernel_extras_addrs=
kvm_vm=Null
load_addr_mask=18446744073709551615
load_offset=0
m5ops_base=4294901760
mem_mode=timing
mem_ranges=0:16777216 16777216:33554432 33554432:50331648 50331648:67108864 67108864:83886080 83886080:100663296 100663296:117440512 117440512:134217728 134217728:150994944 150994944:167772160 167772160:184549376 184549376:201326592 201326592:218103808 218103808:234881024 234881024:251658240 251658240:268435456 268435456:285212672 285212672:301989888 301989888:318767104 318767104:335544320 335544320:352321536 352321536:369098752 369098752:385875968 385875968:402653184 402653184:419430400 419430400:436207616 436207616:452984832 452984832:469762048 469762048:486539264 486539264:503316480 503316480:520093696 520093696:536870912 536870912:553648128 553648128:570425344 570425344:587202560 587202560:603979776 603979776:620756992 620756992:637534208 637534208:654311424 654311424:671088640 671088640:687865856 687865856:704643072 704643072:721420288 721420288:738197504 738197504:754974720 754974720:771751936 771751936:788529152 788529152:805306368 805306368:822083584 822083584:838860800 838860800:855638016 855638016:872415232 872415232:889192448 889192448:905969664 905969664:922746880 922746880:939524096 939524096:956301312 956301312:973078528 973078528:989855744 989855744:1006632960 1006632960:1023410176 1023410176:1040187392 1040187392:1056964608 1056964608:1073741824 1073741824:1090519040 1090519040:1107296256 1107296256:1124073472 1124073472:1140850688 1140850688:1157627904 1157627904:1174405120 1174405120:1191182336 1191182336:1207959552 1207959552:1224736768 1224736768:1241513984 1241513984:1258291200 1258291200:1275068416 1275068416:1291845632 1291845632:1308622848 1308622848:1325400064 1325400064:1342177280 1342177280:1358954496 1358954496:1375731712 1375731712:1392508928 1392508928:1409286144 1409286144:1426063360 1426063360:1442840576 1442840576:1459617792 1459617792:1476395008 1476395008:1493172224 1493172224:1509949440 1509949440:1526726656 1526726656:1543503872 1543503872:1560281088 1560281088:1577058304 1577058304:1593835520 1593835520:1610612736 1610612736:1627389952 1627389952:1644167168 1644167168:1660944384 1660944384:1677721600 1677721600:1694498816 1694498816:1711276032 1711276032:1728053248 1728053248:1744830464 1744830464:1761607680 1761607680:1778384896 1778384896:1795162112 1795162112:1811939328 1811939328:1828716544 1828716544:1845493760 1845493760:1862270976 1862270976:1879048192 1879048192:1895825408 1895825408:1912602624 1912602624:1929379840 1929379840:1946157056 1946157056:1962934272 1962934272:1979711488 1979711488:1996488704 1996488704:2013265920 2013265920:2030043136 2030043136:2046820352 2046820352:2063597568 2063597568:2080374784 2080374784:2097152000 2097152000:2113929216 2113929216:2130706432 2130706432:2147483648 2147483648:2164260864 2164260864:2181038080 2181038080:2197815296 2197815296:2214592512 2214592512:2231369728 2231369728:2248146944 2248146944:2264924160 2264924160:2281701376 2281701376:2298478592 2298478592:2315255808 2315255808:2332033024 2332033024:2348810240 2348810240:2365587456 2365587456:2382364672 2382364672:2399141888 2399141888:2415919104 2415919104:2432696320 2432696320:2449473536 2449473536:2466250752 2466250752:2483027968 2483027968:2499805184 2499805184:2516582400 2516582400:2533359616 2533359616:2550136832 2550136832:2566914048 2566914048:2583691264 2583691264:2600468480 2600468480:2617245696 2617245696:2634022912 2634022912:2650800128 2650800128:2667577344 2667577344:2684354560 2684354560:2701131776 2701131776:2717908992 2717908992:2734686208 2734686208:2751463424 2751463424:2768240640 2768240640:2785017856 2785017856:2801795072 2801795072:2818572288 2818572288:2835349504 2835349504:2852126720 2852126720:2868903936 2868903936:2885681152 2885681152:2902458368 2902458368:2919235584 2919235584:2936012800 2936012800:2952790016 2952790016:2969567232 2969567232:2986344448 2986344448:3003121664 3003121664:3019898880 3019898880:3036676096 3036676096:3053453312 3053453312:3070230528 3070230528:3087007744 3087007744:3103784960 3103784960:3120562176 3120562176:3137339392 3137339392:3154116608 3154116608:3170893824 3170893824:3187671040 3187671040:3204448256 3204448256:3221225472 3221225472:3238002688 3238002688:3254779904 3254779904:3271557120 3271557120:3288334336 3288334336:3305111552 3305111552:3321888768 3321888768:3338665984 3338665984:3355443200 3355443200:3372220416 3372220416:3388997632 3388997632:3405774848 3405774848:3422552064 3422552064:3439329280 3439329280:3456106496 3456106496:3472883712 3472883712:3489660928 3489660928:3506438144 3506438144:3523215360 3523215360:3539992576 3539992576:3556769792 3556769792:3573547008 3573547008:3590324224 3590324224:3607101440 3607101440:3623878656 3623878656:3640655872 3640655872:3657433088 3657433088:3674210304 3674210304:3690987520 3690987520:3707764736 3707764736:3724541952 3724541952:3741319168 3741319168:3758096384 3758096384:3774873600 3774873600:3791650816 3791650816:3808428032 3808428032:3825205248 3825205248:3841982464 3841982464:3858759680 3858759680:3875536896 3875536896:3892314112 3892314112:3909091328 3909091328:3925868544 3925868544:3942645760 3942645760:3959422976 3959422976:3976200192 3976200192:3992977408 3992977408:4009754624 4009754624:4026531840 4026531840:4043309056 4043309056:4060086272 4060086272:4076863488 4076863488:4093640704 4093640704:4110417920 4110417920:4127195136 4127195136:4143972352 4143972352:4160749568 4160749568:4177526784 4177526784:4194304000 4194304000:4211081216 4211081216:4227858432 4227858432:4244635648 4244635648:4261412864 4261412864:4278190080 4278190080:4294967296
memories=system.hmc_dev.mem_ctrls000 system.hmc_dev.mem_ctrls001 system.hmc_dev.mem_ctrls002 system.hmc_dev.mem_ctrls003 system.hmc_dev.mem_ctrls004 system.hmc_dev.mem_ctrls005 system.hmc_dev.mem_ctrls006 system.hmc_dev.mem_ctrls007 system.hmc_dev.mem_ctrls008 system.hmc_dev.mem_ctrls009 system.hmc_dev.mem_ctrls010 system.hmc_dev.mem_ctrls011 system.hmc_dev.mem_ctrls012 system.hmc_dev.mem_ctrls013 system.hmc_dev.mem_ctrls014 system.hmc_dev.mem_ctrls015 system.hmc_dev.mem_ctrls016 system.hmc_dev.mem_ctrls017 system.hmc_dev.mem_ctrls018 system.hmc_dev.mem_ctrls019 system.hmc_dev.mem_ctrls020 system.hmc_dev.mem_ctrls021 system.hmc_dev.mem_ctrls022 system.hmc_dev.mem_ctrls023 system.hmc_dev.mem_ctrls024 system.hmc_dev.mem_ctrls025 system.hmc_dev.mem_ctrls026 system.hmc_dev.mem_ctrls027 system.hmc_dev.mem_ctrls028 system.hmc_dev.mem_ctrls029 system.hmc_dev.mem_ctrls030 system.hmc_dev.mem_ctrls031 system.hmc_dev.mem_ctrls032 system.hmc_dev.mem_ctrls033 system.hmc_dev.mem_ctrls034 system.hmc_dev.mem_ctrls035 system.hmc_dev.mem_ctrls036 system.hmc_dev.mem_ctrls037 system.hmc_dev.mem_ctrls038 system.hmc_dev.mem_ctrls039 system.hmc_dev.mem_ctrls040 system.hmc_dev.mem_ctrls041 system.hmc_dev.mem_ctrls042 system.hmc_dev.mem_ctrls043 system.hmc_dev.mem_ctrls044 system.hmc_dev.mem_ctrls045 system.hmc_dev.mem_ctrls046 system.hmc_dev.mem_ctrls047 system.hmc_dev.mem_ctrls048 system.hmc_dev.mem_ctrls049 system.hmc_dev.mem_ctrls050 system.hmc_dev.mem_ctrls051 system.hmc_dev.mem_ctrls052 system.hmc_dev.mem_ctrls053 system.hmc_dev.mem_ctrls054 system.hmc_dev.mem_ctrls055 system.hmc_dev.mem_ctrls056 system.hmc_dev.mem_ctrls057 system.hmc_dev.mem_ctrls058 system.hmc_dev.mem_ctrls059 system.hmc_dev.mem_ctrls060 system.hmc_dev.mem_ctrls061 system.hmc_dev.mem_ctrls062 system.hmc_dev.mem_ctrls063 system.hmc_dev.mem_ctrls064 system.hmc_dev.mem_ctrls065 system.hmc_dev.mem_ctrls066 system.hmc_dev.mem_ctrls067 system.hmc_dev.mem_ctrls068 system.hmc_dev.mem_ctrls069 system.hmc_dev.mem_ctrls070 system.hmc_dev.mem_ctrls071 system.hmc_dev.mem_ctrls072 system.hmc_dev.mem_ctrls073 system.hmc_dev.mem_ctrls074 system.hmc_dev.mem_ctrls075 system.hmc_dev.mem_ctrls076 system.hmc_dev.mem_ctrls077 system.hmc_dev.mem_ctrls078 system.hmc_dev.mem_ctrls079 system.hmc_dev.mem_ctrls080 system.hmc_dev.mem_ctrls081 system.hmc_dev.mem_ctrls082 system.hmc_dev.mem_ctrls083 system.hmc_dev.mem_ctrls084 system.hmc_dev.mem_ctrls085 system.hmc_dev.mem_ctrls086 system.hmc_dev.mem_ctrls087 system.hmc_dev.mem_ctrls088 system.hmc_dev.mem_ctrls089 system.hmc_dev.mem_ctrls090 system.hmc_dev.mem_ctrls091 system.hmc_dev.mem_ctrls092 system.hmc_dev.mem_ctrls093 system.hmc_dev.mem_ctrls094 system.hmc_dev.mem_ctrls095 system.hmc_dev.mem_ctrls096 system.hmc_dev.mem_ctrls097 system.hmc_dev.mem_ctrls098 system.hmc_dev.mem_ctrls099 system.hmc_dev.mem_ctrls100 system.hmc_dev.mem_ctrls101 system.hmc_dev.mem_ctrls102 system.hmc_dev.mem_ctrls103 system.hmc_dev.mem_ctrls104 system.hmc_dev.mem_ctrls105 system.hmc_dev.mem_ctrls106 system.hmc_dev.mem_ctrls107 system.hmc_dev.mem_ctrls108 system.hmc_dev.mem_ctrls109 system.hmc_dev.mem_ctrls110 system.hmc_dev.mem_ctrls111 system.hmc_dev.mem_ctrls112 system.hmc_dev.mem_ctrls113 system.hmc_dev.mem_ctrls114 system.hmc_dev.mem_ctrls115 system.hmc_dev.mem_ctrls116 system.hmc_dev.mem_ctrls117 system.hmc_dev.mem_ctrls118 system.hmc_dev.mem_ctrls119 system.hmc_dev.mem_ctrls120 system.hmc_dev.mem_ctrls121 system.hmc_dev.mem_ctrls122 system.hmc_dev.mem_ctrls123 system.hmc_dev.mem_ctrls124 system.hmc_dev.mem_ctrls125 system.hmc_dev.mem_ctrls126 system.hmc_dev.mem_ctrls127 system.hmc_dev.mem_ctrls128 system.hmc_dev.mem_ctrls129 system.hmc_dev.mem_ctrls130 system.hmc_dev.mem_ctrls131 system.hmc_dev.mem_ctrls132 system.hmc_dev.mem_ctrls133 system.hmc_dev.mem_ctrls134 system.hmc_dev.mem_ctrls135 system.hmc_dev.mem_ctrls136 system.hmc_dev.mem_ctrls137 system.hmc_dev.mem_ctrls138 system.hmc_dev.mem_ctrls139 system.hmc_dev.mem_ctrls140 system.hmc_dev.mem_ctrls141 system.hmc_dev.mem_ctrls142 system.hmc_dev.mem_ctrls143 system.hmc_dev.mem_ctrls144 system.hmc_dev.mem_ctrls145 system.hmc_dev.mem_ctrls146 system.hmc_dev.mem_ctrls147 system.hmc_dev.mem_ctrls148 system.hmc_dev.mem_ctrls149 system.hmc_dev.mem_ctrls150 system.hmc_dev.mem_ctrls151 system.hmc_dev.mem_ctrls152 system.hmc_dev.mem_ctrls153 system.hmc_dev.mem_ctrls154 system.hmc_dev.mem_ctrls155 system.hmc_dev.mem_ctrls156 system.hmc_dev.mem_ctrls157 system.hmc_dev.mem_ctrls158 system.hmc_dev.mem_ctrls159 system.hmc_dev.mem_ctrls160 system.hmc_dev.mem_ctrls161 system.hmc_dev.mem_ctrls162 system.hmc_dev.mem_ctrls163 system.hmc_dev.mem_ctrls164 system.hmc_dev.mem_ctrls165 system.hmc_dev.mem_ctrls166 system.hmc_dev.mem_ctrls167 system.hmc_dev.mem_ctrls168 system.hmc_dev.mem_ctrls169 system.hmc_dev.mem_ctrls170 system.hmc_dev.mem_ctrls171 system.hmc_dev.mem_ctrls172 system.hmc_dev.mem_ctrls173 system.hmc_dev.mem_ctrls174 system.hmc_dev.mem_ctrls175 system.hmc_dev.mem_ctrls176 system.hmc_dev.mem_ctrls177 system.hmc_dev.mem_ctrls178 system.hmc_dev.mem_ctrls179 system.hmc_dev.mem_ctrls180 system.hmc_dev.mem_ctrls181 system.hmc_dev.mem_ctrls182 system.hmc_dev.mem_ctrls183 system.hmc_dev.mem_ctrls184 system.hmc_dev.mem_ctrls185 system.hmc_dev.mem_ctrls186 system.hmc_dev.mem_ctrls187 system.hmc_dev.mem_ctrls188 system.hmc_dev.mem_ctrls189 system.hmc_dev.mem_ctrls190 system.hmc_dev.mem_ctrls191 system.hmc_dev.mem_ctrls192 system.hmc_dev.mem_ctrls193 system.hmc_dev.mem_ctrls194 system.hmc_dev.mem_ctrls195 system.hmc_dev.mem_ctrls196 system.hmc_dev.mem_ctrls197 system.hmc_dev.mem_ctrls198 system.hmc_dev.mem_ctrls199 system.hmc_dev.mem_ctrls200 system.hmc_dev.mem_ctrls201 system.hmc_dev.mem_ctrls202 system.hmc_dev.mem_ctrls203 system.hmc_dev.mem_ctrls204 system.hmc_dev.mem_ctrls205 system.hmc_dev.mem_ctrls206 system.hmc_dev.mem_ctrls207 system.hmc_dev.mem_ctrls208 system.hmc_dev.mem_ctrls209 system.hmc_dev.mem_ctrls210 system.hmc_dev.mem_ctrls211 system.hmc_dev.mem_ctrls212 system.hmc_dev.mem_ctrls213 system.hmc_dev.mem_ctrls214 system.hmc_dev.mem_ctrls215 system.hmc_dev.mem_ctrls216 system.hmc_dev.mem_ctrls217 system.hmc_dev.mem_ctrls218 system.hmc_dev.mem_ctrls219 system.hmc_dev.mem_ctrls220 system.hmc_dev.mem_ctrls221 system.hmc_dev.mem_ctrls222 system.hmc_dev.mem_ctrls223 system.hmc_dev.mem_ctrls224 system.hmc_dev.mem_ctrls225 system.hmc_dev.mem_ctrls226 system.hmc_dev.mem_ctrls227 system.hmc_dev.mem_ctrls228 system.hmc_dev.mem_ctrls229 system.hmc_dev.mem_ctrls230 system.hmc_dev.mem_ctrls231 system.hmc_dev.mem_ctrls232 system.hmc_dev.mem_ctrls233 system.hmc_dev.mem_ctrls234 system.hmc_dev.mem_ctrls235 system.hmc_dev.mem_ctrls236 system.hmc_dev.mem_ctrls237 system.hmc_dev.mem_ctrls238 system.hmc_dev.mem_ctrls239 system.hmc_dev.mem_ctrls240 system.hmc_dev.mem_ctrls241 system.hmc_dev.mem_ctrls242 system.hmc_dev.mem_ctrls243 system.hmc_dev.mem_ctrls244 system.hmc_dev.mem_ctrls245 system.hmc_dev.mem_ctrls246 system.hmc_dev.mem_ctrls247 system.hmc_dev.mem_ctrls248 system.hmc_dev.mem_ctrls249 system.hmc_dev.mem_ctrls250 system.hmc_dev.mem_ctrls251 system.hmc_dev.mem_ctrls252 system.hmc_dev.mem_ctrls253 system.hmc_dev.mem_ctrls254 system.hmc_dev.mem_ctrls255
mmap_using_noreserve=false
multi_thread=false
num_work_ids=16
readfile=
redirect_paths=system.redirect_paths0 system.redirect_paths1 system.redirect_paths2
symbolfile=
thermal_components=
thermal_model=Null
work_begin_ckpt_count=0
work_begin_cpu_id_exit=-1
work_begin_exit_count=0
work_cpus_ckpt_count=0
work_end_ckpt_count=0
work_end_exit_count=0
work_item_id=-1
system_port=system.membus.slave[0]

[system.clk_domain]
type=SrcClockDomain
clock=1000
domain_id=-1
eventq_index=0
init_perf_level=0
voltage_domain=system.voltage_domain

[system.cpu00]
type=TimingSimpleCPU
children=dtb interrupts isa itb tracer workload
branchPred=Null
checker=Null
clk_domain=system.cpu_clk_domain
cpu_id=0
default_p_state=UNDEFINED
do_checkpoint_insts=true
do_quiesce=true
do_statistics_insts=true
dtb=system.cpu00.dtb
eventq_index=0
function_trace=false
function_trace_start=0
interrupts=system.cpu00.interrupts
isa=system.cpu00.isa
itb=system.cpu00.itb
max_insts_all_threads=0
max_insts_any_thread=0
numThreads=1
p_state_clk_gate_bins=20
p_state_clk_gate_max=1000000000000
p_state_clk_gate_min=1000
power_gating_on_idle=false
power_model=
profile=0
progress_interval=0
pwr_gating_latency=300
simpoint_start_insts=
socket_id=0
switched_out=false
syscallRetryLatency=10000
system=system
tracer=system.cpu00.tracer
wait_for_remote_gdb=false
workload=system.cpu00.workload
dcache_port=system.membus.slave[2]
icache_port=system.membus.slave[1]

[system.cpu00.dtb]
type=X86TLB
children=walker
eventq_index=0
size=64
system=system
walker=system.cpu00.dtb.walker

[system.cpu00.dtb.walker]
type=X86PagetableWalker
clk_domain=system.cpu_clk_domain
default_p_state=UNDEFINED
eventq_index=0
num_squash_per_cycle=4
p_state_clk_gate_bins=20
p_state_clk_gate_max=1000000000000
p_state_clk_gate_min=1000
power_model=
system=system
port=system.membus.slave[4]

[system.cpu00.interrupts]
type=X86LocalApic
children=clk_domain
clk_domain=system.cpu00.interrupts.clk_domain
eventq_index=0
int_latency=1000
pio_latency=100000
system=system
int_master=system.membus.slave[5]
int_slave=system.membus.master[5]
pio=system.membus.master[4]

[system.cpu00.interrupts.clk_domain]
type=DerivedClockDomain
clk_divider=16
clk_domain=system.cpu_clk_domain
eventq_index=0

[system.cpu00.isa]
type=X86ISA
eventq_index=0

[system.cpu00.itb]
type=X86TLB
children=walker
eventq_index=0
size=64
system=system
walker=system.cpu00.itb.walker

[system.cpu00.itb.walker]
type=X86PagetableWalker
clk_domain=system.cpu_clk_domain
default_p_state=UNDEFINED
eventq_index=0
num_squash_per_cycle=4
p_state_clk_gate_bins=20
p_state_clk_gate_max=1000000000000
p_state_clk_gate_min=1000
power_model=
system=system
port=system.membus.slave[3]

[system.cpu00.tracer]
type=ExeTracer
eventq_index=0

[system.cpu00.workload]
type=Process
cmd=./hello
cwd=/afs/ece.cmu.edu/usr/mckenziv/Private/742
drivers=
egid=100
env=
errout=cerr
euid=100
eventq_index=0
executable=./hello
gid=100
input=cin
kvmInSE=false
maxStackSize=67108864
output=cout
pgid=100
pid=100
ppid=0
release=5.1.0
simpoint=0
system=system
uid=100
useArchPT=false

[system.cpu01]
type=TimingSimpleCPU
children=dtb interrupts isa itb tracer workload
branchPred=Null
checker=Null
clk_domain=system.cpu_clk_domain
cpu_id=1
default_p_state=UNDEFINED
do_checkpoint_insts=true
do_quiesce=true
do_statistics_insts=true
dtb=system.cpu01.dtb
eventq_index=0
function_trace=false
function_trace_start=0
interrupts=system.cpu01.interrupts
isa=system.cpu01.isa
itb=system.cpu01.itb
max_insts_all_threads=0
max_insts_any_thread=0
numThreads=1
p_state_clk_gate_bins=20
p_state_clk_gate_max=1000000000000
p_state_clk_gate_min=1000
power_gating_on_idle=false
power_model=
profile=0
progress_interval=0
pwr_gating_latency=300
simpoint_start_insts=
socket_id=0
switched_out=false
syscallRetryLatency=10000
system=system
tracer=system.cpu01.tracer
wait_for_remote_gdb=false
workload=system.cpu01.workload
dcache_port=system.membus.slave[7]
icache_port=system.membus.slave[6]

[system.cpu01.dtb]
type=X86TLB
children=walker
eventq_index=0
size=64
system=system
walker=system.cpu01.dtb.walker

[system.cpu01.dtb.walker]
type=X86PagetableWalker
clk_domain=system.cpu_clk_domain
default_p_state=UNDEFINED
eventq_index=0
num_squash_per_cycle=4
p_state_clk_gate_bins=20
p_state_clk_gate_max=1000000000000
p_state_clk_gate_min=1000
power_model=
system=system
port=system.membus.slave[9]

[system.cpu01.interrupts]
type=X86LocalApic
children=clk_domain
clk_domain=system.cpu01.interrupts.clk_domain
eventq_index=0
int_latency=1000
pio_latency=100000
system=system
int_master=system.membus.slave[10]
int_slave=system.membus.master[7]
pio=system.membus.master[6]

[system.cpu01.interrupts.clk_domain]
type=DerivedClockDomain
clk_divider=16
clk_domain=system.cpu_clk_domain
eventq_index=0

[system.cpu01.isa]
type=X86ISA
eventq_index=0

[system.cpu01.itb]
type=X86TLB
children=walker
eventq_index=0
size=64
system=system
walker=system.cpu01.itb.walker

[system.cpu01.itb.walker]
type=X86PagetableWalker
clk_domain=system.cpu_clk_domain
default_p_state=UNDEFINED
eventq_index=0
num_squash_per_cycle=4
p_state_clk_gate_bins=20
p_state_clk_gate_max=1000000000000
p_state_clk_gate_min=1000
power_model=
system=system
port=system.membus.slave[8]

[system.cpu01.tracer]
type=ExeTracer
eventq_index=0

[system.cpu01.workload]
type=Process
cmd=./hello
cwd=/afs/ece.cmu.edu/usr/mckenziv/Private/742
drivers=
egid=100
env=
errout=cerr
euid=100
eventq_index=0
executable=./hello
gid=100
input=cin
kvmInSE=false
maxStackSize=67108864
output=cout
pgid=100
pid=101
ppid=0
release=5.1.0
simpoint=0
system=system
uid=100
useArchPT=false

[system.cpu02]
type=TimingSimpleCPU
children=dtb interrupts isa itb tracer workload
branchPred=Null
checker=Null
clk_domain=system.cpu_clk_domain
cpu_id=2
default_p_state=UNDEFINED
do_checkpoint_insts=true
do_quiesce=true
do_statistics_insts=true
dtb=system.cpu02.dtb
eventq_index=0
function_trace=false
function_trace_start=0
interrupts=system.cpu02.interrupts
isa=system.cpu02.isa
itb=system.cpu02.itb
max_insts_all_threads=0
max_insts_any_thread=0
numThreads=1
p_state_clk_gate_bins=20
p_state_clk_gate_max=1000000000000
p_state_clk_gate_min=1000
power_gating_on_idle=false
power_model=
profile=0
progress_interval=0
pwr_gating_latency=300
simpoint_start_insts=
socket_id=0
switched_out=false
syscallRetryLatency=10000
system=system
tracer=system.cpu02.tracer
wait_for_remote_gdb=false
workload=system.cpu02.workload
dcache_port=system.membus.slave[12]
icache_port=system.membus.slave[11]

[system.cpu02.dtb]
type=X86TLB
children=walker
eventq_index=0
size=64
system=system
walker=system.cpu02.dtb.walker

[system.cpu02.dtb.walker]
type=X86PagetableWalker
clk_domain=system.cpu_clk_domain
default_p_state=UNDEFINED
eventq_index=0
num_squash_per_cycle=4
p_state_clk_gate_bins=20
p_state_clk_gate_max=1000000000000
p_state_clk_gate_min=1000
power_model=
system=system
port=system.membus.slave[14]

[system.cpu02.interrupts]
type=X86LocalApic
children=clk_domain
clk_domain=system.cpu02.interrupts.clk_domain
eventq_index=0
int_latency=1000
pio_latency=100000
system=system
int_master=system.membus.slave[15]
int_slave=system.membus.master[9]
pio=system.membus.master[8]

[system.cpu02.interrupts.clk_domain]
type=DerivedClockDomain
clk_divider=16
clk_domain=system.cpu_clk_domain
eventq_index=0

[system.cpu02.isa]
type=X86ISA
eventq_index=0

[system.cpu02.itb]
type=X86TLB
children=walker
eventq_index=0
size=64
system=system
walker=system.cpu02.itb.walker

[system.cpu02.itb.walker]
type=X86PagetableWalker
clk_domain=system.cpu_clk_domain
default_p_state=UNDEFINED
eventq_index=0
num_squash_per_cycle=4
p_state_clk_gate_bins=20
p_state_clk_gate_max=1000000000000
p_state_clk_gate_min=1000
power_model=
system=system
port=system.membus.slave[13]

[system.cpu02.tracer]
type=ExeTracer
eventq_index=0

[system.cpu02.workload]
type=Process
cmd=./hello
cwd=/afs/ece.cmu.edu/usr/mckenziv/Private/742
drivers=
egid=100
env=
errout=cerr
euid=100
eventq_index=0
executable=./hello
gid=100
input=cin
kvmInSE=false
maxStackSize=67108864
output=cout
pgid=100
pid=102
ppid=0
release=5.1.0
simpoint=0
system=system
uid=100
useArchPT=false

[system.cpu03]
type=TimingSimpleCPU
children=dtb interrupts isa itb tracer workload
branchPred=Null
checker=Null
clk_domain=system.cpu_clk_domain
cpu_id=3
default_p_state=UNDEFINED
do_checkpoint_insts=true
do_quiesce=true
do_statistics_insts=true
dtb=system.cpu03.dtb
eventq_index=0
function_trace=false
function_trace_start=0
interrupts=system.cpu03.interrupts
isa=system.cpu03.isa
itb=system.cpu03.itb
max_insts_all_threads=0
max_insts_any_thread=0
numThreads=1
p_state_clk_gate_bins=20
p_state_clk_gate_max=1000000000000
p_state_clk_gate_min=1000
power_gating_on_idle=false
power_model=
profile=0
progress_interval=0
pwr_gating_latency=300
simpoint_start_insts=
socket_id=0
switched_out=false
syscallRetryLatency=10000
system=system
tracer=system.cpu03.tracer
wait_for_remote_gdb=false
workload=system.cpu03.workload
dcache_port=system.membus.slave[17]
icache_port=system.membus.slave[16]

[system.cpu03.dtb]
type=X86TLB
children=walker
eventq_index=0
size=64
system=system
walker=system.cpu03.dtb.walker

[system.cpu03.dtb.walker]
type=X86PagetableWalker
clk_domain=system.cpu_clk_domain
default_p_state=UNDEFINED
eventq_index=0
num_squash_per_cycle=4
p_state_clk_gate_bins=20
p_state_clk_gate_max=1000000000000
p_state_clk_gate_min=1000
power_model=
system=system
port=system.membus.slave[19]

[system.cpu03.interrupts]
type=X86LocalApic
children=clk_domain
clk_domain=system.cpu03.interrupts.clk_domain
eventq_index=0
int_latency=1000
pio_latency=100000
system=system
int_master=system.membus.slave[20]
int_slave=system.membus.master[11]
pio=system.membus.master[10]

[system.cpu03.interrupts.clk_domain]
type=DerivedClockDomain
clk_divider=16
clk_domain=system.cpu_clk_domain
eventq_index=0

[system.cpu03.isa]
type=X86ISA
eventq_index=0

[system.cpu03.itb]
type=X86TLB
children=walker
eventq_index=0
size=64
system=system
walker=system.cpu03.itb.walker

[system.cpu03.itb.walker]
type=X86PagetableWalker
clk_domain=system.cpu_clk_domain
default_p_state=UNDEFINED
eventq_index=0
num_squash_per_cycle=4
p_state_clk_gate_bins=20
p_state_clk_gate_max=1000000000000
p_state_clk_gate_min=1000
power_model=
system=system
port=system.membus.slave[18]

[system.cpu03.tracer]
type=ExeTracer
eventq_index=0

[system.cpu03.workload]
type=Process
cmd=./hello
cwd=/afs/ece.cmu.edu/usr/mckenziv/Private/742
drivers=
egid=100
env=
errout=cerr
euid=100
eventq_index=0
executable=./hello
gid=100
input=cin
kvmInSE=false
maxStackSize=67108864
output=cout
pgid=100
pid=103
ppid=0
release=5.1.0
simpoint=0
system=system
uid=100
useArchPT=false

[system.cpu04]
type=TimingSimpleCPU
children=dtb interrupts isa itb tracer workload
branchPred=Null
checker=Null
clk_domain=system.cpu_clk_domain
cpu_id=4
default_p_state=UNDEFINED
do_checkpoint_insts=true
do_quiesce=true
do_statistics_insts=true
dtb=system.cpu04.dtb
eventq_index=0
function_trace=false
function_trace_start=0
interrupts=system.cpu04.interrupts
isa=system.cpu04.isa
itb=system.cpu04.itb
max_insts_all_threads=0
max_insts_any_thread=0
numThreads=1
p_state_clk_gate_bins=20
p_state_clk_gate_max=1000000000000
p_state_clk_gate_min=1000
power_gating_on_idle=false
power_model=
profile=0
progress_interval=0
pwr_gating_latency=300
simpoint_start_insts=
socket_id=0
switched_out=false
syscallRetryLatency=10000
system=system
tracer=system.cpu04.tracer
wait_for_remote_gdb=false
workload=system.cpu04.workload
dcache_port=system.membus.slave[22]
icache_port=system.membus.slave[21]

[system.cpu04.dtb]
type=X86TLB
children=walker
eventq_index=0
size=64
system=system
walker=system.cpu04.dtb.walker

[system.cpu04.dtb.walker]
type=X86PagetableWalker
clk_domain=system.cpu_clk_domain
default_p_state=UNDEFINED
eventq_index=0
num_squash_per_cycle=4
p_state_clk_gate_bins=20
p_state_clk_gate_max=1000000000000
p_state_clk_gate_min=1000
power_model=
system=system
port=system.membus.slave[24]

[system.cpu04.interrupts]
type=X86LocalApic
children=clk_domain
clk_domain=system.cpu04.interrupts.clk_domain
eventq_index=0
int_latency=1000
pio_latency=100000
system=system
int_master=system.membus.slave[25]
int_slave=system.membus.master[13]
pio=system.membus.master[12]

[system.cpu04.interrupts.clk_domain]
type=DerivedClockDomain
clk_divider=16
clk_domain=system.cpu_clk_domain
eventq_index=0

[system.cpu04.isa]
type=X86ISA
eventq_index=0

[system.cpu04.itb]
type=X86TLB
children=walker
eventq_index=0
size=64
system=system
walker=system.cpu04.itb.walker

[system.cpu04.itb.walker]
type=X86PagetableWalker
clk_domain=system.cpu_clk_domain
default_p_state=UNDEFINED
eventq_index=0
num_squash_per_cycle=4
p_state_clk_gate_bins=20
p_state_clk_gate_max=1000000000000
p_state_clk_gate_min=1000
power_model=
system=system
port=system.membus.slave[23]

[system.cpu04.tracer]
type=ExeTracer
eventq_index=0

[system.cpu04.workload]
type=Process
cmd=./gapbs/pr_4 -n 1 -f ./edgelist_data/internet.mtx
cwd=/afs/ece.cmu.edu/usr/mckenziv/Private/742
drivers=
egid=100
env=
errout=cerr
euid=100
eventq_index=0
executable=./gapbs/pr_4
gid=100
input=cin
kvmInSE=false
maxStackSize=67108864
output=cout
pgid=100
pid=104
ppid=0
release=5.1.0
simpoint=0
system=system
uid=100
useArchPT=false

[system.cpu05]
type=TimingSimpleCPU
children=dtb interrupts isa itb tracer workload
branchPred=Null
checker=Null
clk_domain=system.cpu_clk_domain
cpu_id=5
default_p_state=UNDEFINED
do_checkpoint_insts=true
do_quiesce=true
do_statistics_insts=true
dtb=system.cpu05.dtb
eventq_index=0
function_trace=false
function_trace_start=0
interrupts=system.cpu05.interrupts
isa=system.cpu05.isa
itb=system.cpu05.itb
max_insts_all_threads=0
max_insts_any_thread=0
numThreads=1
p_state_clk_gate_bins=20
p_state_clk_gate_max=1000000000000
p_state_clk_gate_min=1000
power_gating_on_idle=false
power_model=
profile=0
progress_interval=0
pwr_gating_latency=300
simpoint_start_insts=
socket_id=0
switched_out=false
syscallRetryLatency=10000
system=system
tracer=system.cpu05.tracer
wait_for_remote_gdb=false
workload=system.cpu05.workload
dcache_port=system.membus.slave[27]
icache_port=system.membus.slave[26]

[system.cpu05.dtb]
type=X86TLB
children=walker
eventq_index=0
size=64
system=system
walker=system.cpu05.dtb.walker

[system.cpu05.dtb.walker]
type=X86PagetableWalker
clk_domain=system.cpu_clk_domain
default_p_state=UNDEFINED
eventq_index=0
num_squash_per_cycle=4
p_state_clk_gate_bins=20
p_state_clk_gate_max=1000000000000
p_state_clk_gate_min=1000
power_model=
system=system
port=system.membus.slave[29]

[system.cpu05.interrupts]
type=X86LocalApic
children=clk_domain
clk_domain=system.cpu05.interrupts.clk_domain
eventq_index=0
int_latency=1000
pio_latency=100000
system=system
int_master=system.membus.slave[30]
int_slave=system.membus.master[15]
pio=system.membus.master[14]

[system.cpu05.interrupts.clk_domain]
type=DerivedClockDomain
clk_divider=16
clk_domain=system.cpu_clk_domain
eventq_index=0

[system.cpu05.isa]
type=X86ISA
eventq_index=0

[system.cpu05.itb]
type=X86TLB
children=walker
eventq_index=0
size=64
system=system
walker=system.cpu05.itb.walker

[system.cpu05.itb.walker]
type=X86PagetableWalker
clk_domain=system.cpu_clk_domain
default_p_state=UNDEFINED
eventq_index=0
num_squash_per_cycle=4
p_state_clk_gate_bins=20
p_state_clk_gate_max=1000000000000
p_state_clk_gate_min=1000
power_model=
system=system
port=system.membus.slave[28]

[system.cpu05.tracer]
type=ExeTracer
eventq_index=0

[system.cpu05.workload]
type=Process
cmd=./hello
cwd=/afs/ece.cmu.edu/usr/mckenziv/Private/742
drivers=
egid=100
env=
errout=cerr
euid=100
eventq_index=0
executable=./hello
gid=100
input=cin
kvmInSE=false
maxStackSize=67108864
output=cout
pgid=100
pid=105
ppid=0
release=5.1.0
simpoint=0
system=system
uid=100
useArchPT=false

[system.cpu06]
type=TimingSimpleCPU
children=dtb interrupts isa itb tracer workload
branchPred=Null
checker=Null
clk_domain=system.cpu_clk_domain
cpu_id=6
default_p_state=UNDEFINED
do_checkpoint_insts=true
do_quiesce=true
do_statistics_insts=true
dtb=system.cpu06.dtb
eventq_index=0
function_trace=false
function_trace_start=0
interrupts=system.cpu06.interrupts
isa=system.cpu06.isa
itb=system.cpu06.itb
max_insts_all_threads=0
max_insts_any_thread=0
numThreads=1
p_state_clk_gate_bins=20
p_state_clk_gate_max=1000000000000
p_state_clk_gate_min=1000
power_gating_on_idle=false
power_model=
profile=0
progress_interval=0
pwr_gating_latency=300
simpoint_start_insts=
socket_id=0
switched_out=false
syscallRetryLatency=10000
system=system
tracer=system.cpu06.tracer
wait_for_remote_gdb=false
workload=system.cpu06.workload
dcache_port=system.membus.slave[32]