[root]
type=Root
children=system
eventq_index=0
full_system=false
sim_quantum=0
time_sync_enable=false
time_sync_period=100000000000
time_sync_spin_threshold=100000000

[system]
type=System
children=clk_domain cpu00 cpu01 cpu02 cpu03 cpu04 cpu05 cpu06 cpu07 cpu08 cpu09 cpu10 cpu11 cpu12 cpu13 cpu14 cpu15 cpu_clk_domain cpu_voltage_domain dvfs_handler hmc_dev redirect_paths0 redirect_paths1 redirect_paths2 voltage_domain
boot_osflags=a
cache_line_size=64
eventq_index=0
exit_on_work_items=false
init_param=0
kernel=
kernel_addr_check=true
kernel_extras=
kernel_extras_addrs=
kvm_vm=Null
load_addr_mask=18446744073709551615
load_offset=0
m5ops_base=4294901760
mem_mode=timing
mem_ranges=0:268435456 268435456:536870912 536870912:805306368 805306368:1073741824 1073741824:1342177280 1342177280:1610612736 1610612736:1879048192 1879048192:2147483648 2147483648:2415919104 2415919104:2684354560 2684354560:2952790016 2952790016:3221225472 3221225472:3489660928 3489660928:3758096384 3758096384:4026531840 4026531840:4294967296
memories=system.hmc_dev.mem_ctrls00 system.hmc_dev.mem_ctrls01 system.hmc_dev.mem_ctrls02 system.hmc_dev.mem_ctrls03 system.hmc_dev.mem_ctrls04 system.hmc_dev.mem_ctrls05 system.hmc_dev.mem_ctrls06 system.hmc_dev.mem_ctrls07 system.hmc_dev.mem_ctrls08 system.hmc_dev.mem_ctrls09 system.hmc_dev.mem_ctrls10 system.hmc_dev.mem_ctrls11 system.hmc_dev.mem_ctrls12 system.hmc_dev.mem_ctrls13 system.hmc_dev.mem_ctrls14 system.hmc_dev.mem_ctrls15
mmap_using_noreserve=false
multi_thread=false
num_work_ids=16
readfile=
redirect_paths=system.redirect_paths0 system.redirect_paths1 system.redirect_paths2
symbolfile=
thermal_components=
thermal_model=Null
work_begin_ckpt_count=0
work_begin_cpu_id_exit=-1
work_begin_exit_count=0
work_cpus_ckpt_count=0
work_end_ckpt_count=0
work_end_exit_count=0
work_item_id=-1
system_port=system.hmc_dev.xbar00.slave[15]

[system.clk_domain]
type=SrcClockDomain
clock=1000
domain_id=-1
eventq_index=0
init_perf_level=0
voltage_domain=system.voltage_domain

[system.cpu00]
type=TimingSimpleCPU
children=dtb interrupts isa itb tracer workload
branchPred=Null
checker=Null
clk_domain=system.cpu_clk_domain
cpu_id=0
default_p_state=UNDEFINED
do_checkpoint_insts=true
do_quiesce=true
do_statistics_insts=true
dtb=system.cpu00.dtb
eventq_index=0
function_trace=false
function_trace_start=0
interrupts=system.cpu00.interrupts
isa=system.cpu00.isa
itb=system.cpu00.itb
max_insts_all_threads=0
max_insts_any_thread=0
numThreads=1
p_state_clk_gate_bins=20
p_state_clk_gate_max=1000000000000
p_state_clk_gate_min=1000
power_gating_on_idle=false
power_model=
profile=0
progress_interval=0
pwr_gating_latency=300
simpoint_start_insts=
socket_id=0
switched_out=false
syscallRetryLatency=10000
system=system
tracer=system.cpu00.tracer
wait_for_remote_gdb=false
workload=system.cpu00.workload
dcache_port=system.hmc_dev.xbar00.slave[17]
icache_port=system.hmc_dev.xbar00.slave[16]

[system.cpu00.dtb]
type=X86TLB
children=walker
eventq_index=0
size=64
system=system
walker=system.cpu00.dtb.walker

[system.cpu00.dtb.walker]
type=X86PagetableWalker
clk_domain=system.cpu_clk_domain
default_p_state=UNDEFINED
eventq_index=0
num_squash_per_cycle=4
p_state_clk_gate_bins=20
p_state_clk_gate_max=1000000000000
p_state_clk_gate_min=1000
power_model=
system=system
port=system.hmc_dev.xbar00.slave[19]

[system.cpu00.interrupts]
type=X86LocalApic
children=clk_domain
clk_domain=system.cpu00.interrupts.clk_domain
eventq_index=0
int_latency=1000
pio_latency=100000
system=system
int_master=system.hmc_dev.xbar00.slave[20]
int_slave=system.hmc_dev.xbar00.master[17]
pio=system.hmc_dev.xbar00.master[16]

[system.cpu00.interrupts.clk_domain]
type=DerivedClockDomain
clk_divider=16
clk_domain=system.cpu_clk_domain
eventq_index=0

[system.cpu00.isa]
type=X86ISA
eventq_index=0

[system.cpu00.itb]
type=X86TLB
children=walker
eventq_index=0
size=64
system=system
walker=system.cpu00.itb.walker

[system.cpu00.itb.walker]
type=X86PagetableWalker
clk_domain=system.cpu_clk_domain
default_p_state=UNDEFINED
eventq_index=0
num_squash_per_cycle=4
p_state_clk_gate_bins=20
p_state_clk_gate_max=1000000000000
p_state_clk_gate_min=1000
power_model=
system=system
port=system.hmc_dev.xbar00.slave[18]

[system.cpu00.tracer]
type=ExeTracer
eventq_index=0

[system.cpu00.workload]
type=Process
cmd=./gapbs/tc_0 -n 1 -s -f ./edgelist_data/hcircuit.mtx
cwd=/afs/ece.cmu.edu/usr/mckenziv/Private/742
drivers=
egid=100
env=
errout=cerr
euid=100
eventq_index=0
executable=./gapbs/tc_0
gid=100
input=cin
kvmInSE=false
maxStackSize=67108864
output=cout
pgid=100
pid=100
ppid=0
release=5.1.0
simpoint=0
system=system
uid=100
useArchPT=false

[system.cpu01]
type=TimingSimpleCPU
children=dtb interrupts isa itb tracer workload
branchPred=Null
checker=Null
clk_domain=system.cpu_clk_domain
cpu_id=1
default_p_state=UNDEFINED
do_checkpoint_insts=true
do_quiesce=true
do_statistics_insts=true
dtb=system.cpu01.dtb
eventq_index=0
function_trace=false
function_trace_start=0
interrupts=system.cpu01.interrupts
isa=system.cpu01.isa
itb=system.cpu01.itb
max_insts_all_threads=0
max_insts_any_thread=0
numThreads=1
p_state_clk_gate_bins=20
p_state_clk_gate_max=1000000000000
p_state_clk_gate_min=1000
power_gating_on_idle=false
power_model=
profile=0
progress_interval=0
pwr_gating_latency=300
simpoint_start_insts=
socket_id=0
switched_out=false
syscallRetryLatency=10000
system=system
tracer=system.cpu01.tracer
wait_for_remote_gdb=false
workload=system.cpu01.workload
dcache_port=system.hmc_dev.xbar01.slave[16]
icache_port=system.hmc_dev.xbar01.slave[15]

[system.cpu01.dtb]
type=X86TLB
children=walker
eventq_index=0
size=64
system=system
walker=system.cpu01.dtb.walker

[system.cpu01.dtb.walker]
type=X86PagetableWalker
clk_domain=system.cpu_clk_domain
default_p_state=UNDEFINED
eventq_index=0
num_squash_per_cycle=4
p_state_clk_gate_bins=20
p_state_clk_gate_max=1000000000000
p_state_clk_gate_min=1000
power_model=
system=system
port=system.hmc_dev.xbar01.slave[18]

[system.cpu01.interrupts]
type=X86LocalApic
children=clk_domain
clk_domain=system.cpu01.interrupts.clk_domain
eventq_index=0
int_latency=1000
pio_latency=100000
system=system
int_master=system.hmc_dev.xbar01.slave[19]
int_slave=system.hmc_dev.xbar01.master[17]
pio=system.hmc_dev.xbar01.master[16]

[system.cpu01.interrupts.clk_domain]
type=DerivedClockDomain
clk_divider=16
clk_domain=system.cpu_clk_domain
eventq_index=0

[system.cpu01.isa]
type=X86ISA
eventq_index=0

[system.cpu01.itb]
type=X86TLB
children=walker
eventq_index=0
size=64
system=system
walker=system.cpu01.itb.walker

[system.cpu01.itb.walker]
type=X86PagetableWalker
clk_domain=system.cpu_clk_domain
default_p_state=UNDEFINED
eventq_index=0
num_squash_per_cycle=4
p_state_clk_gate_bins=20
p_state_clk_gate_max=1000000000000
p_state_clk_gate_min=1000
power_model=
system=system
port=system.hmc_dev.xbar01.slave[17]

[system.cpu01.tracer]
type=ExeTracer
eventq_index=0

[system.cpu01.workload]
type=Process
cmd=./hello
cwd=/afs/ece.cmu.edu/usr/mckenziv/Private/742
drivers=
egid=100
env=
errout=cerr
euid=100
eventq_index=0
executable=./hello
gid=100
input=cin
kvmInSE=false
maxStackSize=67108864
output=cout
pgid=100
pid=101
ppid=0
release=5.1.0
simpoint=0
system=system
uid=100
useArchPT=false

[system.cpu02]
type=TimingSimpleCPU
children=dtb interrupts isa itb tracer workload
branchPred=Null
checker=Null
clk_domain=system.cpu_clk_domain
cpu_id=2
default_p_state=UNDEFINED
do_checkpoint_insts=true
do_quiesce=true
do_statistics_insts=true
dtb=system.cpu02.dtb
eventq_index=0
function_trace=false
function_trace_start=0
interrupts=system.cpu02.interrupts
isa=system.cpu02.isa
itb=system.cpu02.itb
max_insts_all_threads=0
max_insts_any_thread=0
numThreads=1
p_state_clk_gate_bins=20
p_state_clk_gate_max=1000000000000
p_state_clk_gate_min=1000
power_gating_on_idle=false
power_model=
profile=0
progress_interval=0
pwr_gating_latency=300
simpoint_start_insts=
socket_id=0
switched_out=false
syscallRetryLatency=10000
system=system
tracer=system.cpu02.tracer
wait_for_remote_gdb=false
workload=system.cpu02.workload
dcache_port=system.hmc_dev.xbar02.slave[16]
icache_port=system.hmc_dev.xbar02.slave[15]

[system.cpu02.dtb]
type=X86TLB
children=walker
eventq_index=0
size=64
system=system
walker=system.cpu02.dtb.walker

[system.cpu02.dtb.walker]
type=X86PagetableWalker
clk_domain=system.cpu_clk_domain
default_p_state=UNDEFINED
eventq_index=0
num_squash_per_cycle=4
p_state_clk_gate_bins=20
p_state_clk_gate_max=1000000000000
p_state_clk_gate_min=1000
power_model=
system=system
port=system.hmc_dev.xbar02.slave[18]

[system.cpu02.interrupts]
type=X86LocalApic
children=clk_domain
clk_domain=system.cpu02.interrupts.clk_domain
eventq_index=0
int_latency=1000
pio_latency=100000
system=system
int_master=system.hmc_dev.xbar02.slave[19]
int_slave=system.hmc_dev.xbar02.master[17]
pio=system.hmc_dev.xbar02.master[16]

[system.cpu02.interrupts.clk_domain]
type=DerivedClockDomain
clk_divider=16
clk_domain=system.cpu_clk_domain
eventq_index=0

[system.cpu02.isa]
type=X86ISA
eventq_index=0

[system.cpu02.itb]
type=X86TLB
children=walker
eventq_index=0
size=64
system=system
walker=system.cpu02.itb.walker

[system.cpu02.itb.walker]
type=X86PagetableWalker
clk_domain=system.cpu_clk_domain
default_p_state=UNDEFINED
eventq_index=0
num_squash_per_cycle=4
p_state_clk_gate_bins=20
p_state_clk_gate_max=1000000000000
p_state_clk_gate_min=1000
power_model=
system=system
port=system.hmc_dev.xbar02.slave[17]

[system.cpu02.tracer]
type=ExeTracer
eventq_index=0

[system.cpu02.workload]
type=Process
cmd=./hello
cwd=/afs/ece.cmu.edu/usr/mckenziv/Private/742
drivers=
egid=100
env=
errout=cerr
euid=100
eventq_index=0
executable=./hello
gid=100
input=cin
kvmInSE=false
maxStackSize=67108864
output=cout
pgid=100
pid=102
ppid=0
release=5.1.0
simpoint=0
system=system
uid=100
useArchPT=false

[system.cpu03]
type=TimingSimpleCPU
children=dtb interrupts isa itb tracer workload
branchPred=Null
checker=Null
clk_domain=system.cpu_clk_domain
cpu_id=3
default_p_state=UNDEFINED
do_checkpoint_insts=true
do_quiesce=true
do_statistics_insts=true
dtb=system.cpu03.dtb
eventq_index=0
function_trace=false
function_trace_start=0
interrupts=system.cpu03.interrupts
isa=system.cpu03.isa
itb=system.cpu03.itb
max_insts_all_threads=0
max_insts_any_thread=0
numThreads=1
p_state_clk_gate_bins=20
p_state_clk_gate_max=1000000000000
p_state_clk_gate_min=1000
power_gating_on_idle=false
power_model=
profile=0
progress_interval=0
pwr_gating_latency=300
simpoint_start_insts=
socket_id=0
switched_out=false
syscallRetryLatency=10000
system=system
tracer=system.cpu03.tracer
wait_for_remote_gdb=false
workload=system.cpu03.workload
dcache_port=system.hmc_dev.xbar03.slave[16]
icache_port=system.hmc_dev.xbar03.slave[15]

[system.cpu03.dtb]
type=X86TLB
children=walker
eventq_index=0
size=64
system=system
walker=system.cpu03.dtb.walker

[system.cpu03.dtb.walker]
type=X86PagetableWalker
clk_domain=system.cpu_clk_domain
default_p_state=UNDEFINED
eventq_index=0
num_squash_per_cycle=4
p_state_clk_gate_bins=20
p_state_clk_gate_max=1000000000000
p_state_clk_gate_min=1000
power_model=
system=system
port=system.hmc_dev.xbar03.slave[18]

[system.cpu03.interrupts]
type=X86LocalApic
children=clk_domain
clk_domain=system.cpu03.interrupts.clk_domain
eventq_index=0
int_latency=1000
pio_latency=100000
system=system
int_master=system.hmc_dev.xbar03.slave[19]
int_slave=system.hmc_dev.xbar03.master[17]
pio=system.hmc_dev.xbar03.master[16]

[system.cpu03.interrupts.clk_domain]
type=DerivedClockDomain
clk_divider=16
clk_domain=system.cpu_clk_domain
eventq_index=0

[system.cpu03.isa]
type=X86ISA
eventq_index=0

[system.cpu03.itb]
type=X86TLB
children=walker
eventq_index=0
size=64
system=system
walker=system.cpu03.itb.walker

[system.cpu03.itb.walker]
type=X86PagetableWalker
clk_domain=system.cpu_clk_domain
default_p_state=UNDEFINED
eventq_index=0
num_squash_per_cycle=4
p_state_clk_gate_bins=20
p_state_clk_gate_max=1000000000000
p_state_clk_gate_min=1000
power_model=
system=system
port=system.hmc_dev.xbar03.slave[17]

[system.cpu03.tracer]
type=ExeTracer
eventq_index=0

[system.cpu03.workload]
type=Process
cmd=./hello
cwd=/afs/ece.cmu.edu/usr/mckenziv/Private/742
drivers=
egid=100
env=
errout=cerr
euid=100
eventq_index=0
executable=./hello
gid=100
input=cin
kvmInSE=false
maxStackSize=67108864
output=cout
pgid=100
pid=103
ppid=0
release=5.1.0
simpoint=0
system=system
uid=100
useArchPT=false

[system.cpu04]
type=TimingSimpleCPU
children=dtb interrupts isa itb tracer workload
branchPred=Null
checker=Null
clk_domain=system.cpu_clk_domain
cpu_id=4
default_p_state=UNDEFINED
do_checkpoint_insts=true
do_quiesce=true
do_statistics_insts=true
dtb=system.cpu04.dtb
eventq_index=0
function_trace=false
function_trace_start=0
interrupts=system.cpu04.interrupts
isa=system.cpu04.isa
itb=system.cpu04.itb
max_insts_all_threads=0
max_insts_any_thread=0
numThreads=1
p_state_clk_gate_bins=20
p_state_clk_gate_max=1000000000000
p_state_clk_gate_min=1000
power_gating_on_idle=false
power_model=
profile=0
progress_interval=0
pwr_gating_latency=300
simpoint_start_insts=
socket_id=0
switched_out=false
syscallRetryLatency=10000
system=system
tracer=system.cpu04.tracer
wait_for_remote_gdb=false
workload=system.cpu04.workload
dcache_port=system.hmc_dev.xbar04.slave[16]
icache_port=system.hmc_dev.xbar04.slave[15]

[system.cpu04.dtb]
type=X86TLB
children=walker
eventq_index=0
size=64
system=system
walker=system.cpu04.dtb.walker

[system.cpu04.dtb.walker]
type=X86PagetableWalker
clk_domain=system.cpu_clk_domain
default_p_state=UNDEFINED
eventq_index=0
num_squash_per_cycle=4
p_state_clk_gate_bins=20
p_state_clk_gate_max=1000000000000
p_state_clk_gate_min=1000
power_model=
system=system
port=system.hmc_dev.xbar04.slave[18]

[system.cpu04.interrupts]
type=X86LocalApic
children=clk_domain
clk_domain=system.cpu04.interrupts.clk_domain
eventq_index=0
int_latency=1000
pio_latency=100000
system=system
int_master=system.hmc_dev.xbar04.slave[19]
int_slave=system.hmc_dev.xbar04.master[17]
pio=system.hmc_dev.xbar04.master[16]

[system.cpu04.interrupts.clk_domain]
type=DerivedClockDomain
clk_divider=16
clk_domain=system.cpu_clk_domain
eventq_index=0

[system.cpu04.isa]
type=X86ISA
eventq_index=0

[system.cpu04.itb]
type=X86TLB
children=walker
eventq_index=0
size=64
system=system
walker=system.cpu04.itb.walker

[system.cpu04.itb.walker]
type=X86PagetableWalker
clk_domain=system.cpu_clk_domain
default_p_state=UNDEFINED
eventq_index=0
num_squash_per_cycle=4
p_state_clk_gate_bins=20
p_state_clk_gate_max=1000000000000
p_state_clk_gate_min=1000
power_model=
system=system
port=system.hmc_dev.xbar04.slave[17]

[system.cpu04.tracer]
type=ExeTracer
eventq_index=0

[system.cpu04.workload]
type=Process
cmd=./hello
cwd=/afs/ece.cmu.edu/usr/mckenziv/Private/742
drivers=
egid=100
env=
errout=cerr
euid=100
eventq_index=0
executable=./hello
gid=100
input=cin
kvmInSE=false
maxStackSize=67108864
output=cout
pgid=100
pid=104
ppid=0
release=5.1.0
simpoint=0
system=system
uid=100
useArchPT=false

[system.cpu05]
type=TimingSimpleCPU
children=dtb interrupts isa itb tracer workload
branchPred=Null
checker=Null
clk_domain=system.cpu_clk_domain
cpu_id=5
default_p_state=UNDEFINED
do_checkpoint_insts=true
do_quiesce=true
do_statistics_insts=true
dtb=system.cpu05.dtb
eventq_index=0
function_trace=false
function_trace_start=0
interrupts=system.cpu05.interrupts
isa=system.cpu05.isa
itb=system.cpu05.itb
max_insts_all_threads=0
max_insts_any_thread=0
numThreads=1
p_state_clk_gate_bins=20
p_state_clk_gate_max=1000000000000
p_state_clk_gate_min=1000
power_gating_on_idle=false
power_model=
profile=0
progress_interval=0
pwr_gating_latency=300
simpoint_start_insts=
socket_id=0
switched_out=false
syscallRetryLatency=10000
system=system
tracer=system.cpu05.tracer
wait_for_remote_gdb=false
workload=system.cpu05.workload
dcache_port=system.hmc_dev.xbar05.slave[16]
icache_port=system.hmc_dev.xbar05.slave[15]

[system.cpu05.dtb]
type=X86TLB
children=walker
eventq_index=0
size=64
system=system
walker=system.cpu05.dtb.walker

[system.cpu05.dtb.walker]
type=X86PagetableWalker
clk_domain=system.cpu_clk_domain
default_p_state=UNDEFINED
eventq_index=0
num_squash_per_cycle=4
p_state_clk_gate_bins=20
p_state_clk_gate_max=1000000000000
p_state_clk_gate_min=1000
power_model=
system=system
port=system.hmc_dev.xbar05.slave[18]

[system.cpu05.interrupts]
type=X86LocalApic
children=clk_domain
clk_domain=system.cpu05.interrupts.clk_domain
eventq_index=0
int_latency=1000
pio_latency=100000
system=system
int_master=system.hmc_dev.xbar05.slave[19]
int_slave=system.hmc_dev.xbar05.master[17]
pio=system.hmc_dev.xbar05.master[16]

[system.cpu05.interrupts.clk_domain]
type=DerivedClockDomain
clk_divider=16
clk_domain=system.cpu_clk_domain
eventq_index=0

[system.cpu05.isa]
type=X86ISA
eventq_index=0

[system.cpu05.itb]
type=X86TLB
children=walker
eventq_index=0
size=64
system=system
walker=system.cpu05.itb.walker

[system.cpu05.itb.walker]
type=X86PagetableWalker
clk_domain=system.cpu_clk_domain
default_p_state=UNDEFINED
eventq_index=0
num_squash_per_cycle=4
p_state_clk_gate_bins=20
p_state_clk_gate_max=1000000000000
p_state_clk_gate_min=1000
power_model=
system=system
port=system.hmc_dev.xbar05.slave[17]

[system.cpu05.tracer]
type=ExeTracer
eventq_index=0

[system.cpu05.workload]
type=Process
cmd=./hello
cwd=/afs/ece.cmu.edu/usr/mckenziv/Private/742
drivers=
egid=100
env=
errout=cerr
euid=100
eventq_index=0
executable=./hello
gid=100
input=cin
kvmInSE=false
maxStackSize=67108864
output=cout
pgid=100
pid=105
ppid=0
release=5.1.0
simpoint=0
system=system
uid=100
useArchPT=false

[system.cpu06]
type=TimingSimpleCPU
children=dtb interrupts isa itb tracer workload
branchPred=Null
checker=Null
clk_domain=system.cpu_clk_domain
cpu_id=6
default_p_state=UNDEFINED
do_checkpoint_insts=true
do_quiesce=true
do_statistics_insts=true
dtb=system.cpu06.dtb
eventq_index=0
function_trace=false
function_trace_start=0
interrupts=system.cpu06.interrupts
isa=system.cpu06.isa
itb=system.cpu06.itb
max_insts_all_threads=0
max_insts_any_thread=0
numThreads=1
p_state_clk_gate_bins=20
p_state_clk_gate_max=1000000000000
p_state_clk_gate_min=1000
power_gating_on_idle=false
power_model=
profile=0
progress_interval=0
pwr_gating_latency=300
simpoint_start_insts=
socket_id=0
switched_out=false
syscallRetryLatency=10000
system=system
tracer=system.cpu06.tracer
wait_for_remote_gdb=false
workload=system.cpu06.workload
dcache_port=system.hmc_dev.xbar06.slave[16]
icache_port=system.hmc_dev.xbar06.slave[15]

[system.cpu06.dtb]
type=X86TLB
children=walker
eventq_index=0
size=64
system=system
walker=system.cpu06.dtb.walker

[system.cpu06.dtb.walker]
type=X86PagetableWalker
clk_domain=system.cpu_clk_domain
default_p_state=UNDEFINED
eventq_index=0
num_squash_per_cycle=4
p_state_clk_gate_bins=20
p_state_clk_gate_max=1000000000000
p_state_clk_gate_min=1000
power_model=
system=system
port=system.hmc_dev.xbar06.slave[18]

[system.cpu06.interrupts]
type=X86LocalApic
children=clk_domain
clk_domain=system.cpu06.interrupts.clk_domain
eventq_index=0
int_latency=1000
pio_latency=100000
system=system
int_master=system.hmc_dev.xbar06.slave[19]
int_slave=system.hmc_dev.xbar06.master[17]
pio=system.hmc_dev.xbar06.master[16]

[system.cpu06.interrupts.clk_domain]
type=DerivedClockDomain
clk_divider=16
clk_domain=system.cpu_clk_domain
eventq_index=0

[system.cpu06.isa]
type=X86ISA
eventq_index=0

[system.cpu06.itb]
type=X86TLB
children=walker
eventq_index=0
size=64
system=system
walker=system.cpu06.itb.walker

[system.cpu06.itb.walker]
type=X86PagetableWalker
clk_domain=system.cpu_clk_domain
default_p_state=UNDEFINED
eventq_index=0
num_squash_per_cycle=4
p_state_clk_gate_bins=20
p_state_clk_gate_max=1000000000000
p_state_clk_gate_min=1000
power_model=
system=system
port=system.hmc_dev.xbar06.slave[17]

[system.cpu06.tracer]
type=ExeTracer
eventq_index=0

[system.cpu06.workload]
type=Process
cmd=./hello
cwd=/afs/ece.cmu.edu/usr/mckenziv/Private/742
drivers=
egid=100
env=
errout=cerr
euid=100
eventq_index=0
executable=./hello
gid=100
input=cin
kvmInSE=false
maxStackSize=67108864
output=cout
pgid=100
pid=106
ppid=0
release=5.1.0
simpoint=0
system=system
uid=100
useArchPT=false

[system.cpu07]
type=TimingSimpleCPU
children=dtb interrupts isa itb tracer workload
branchPred=Null
checker=Null
clk_domain=system.cpu_clk_domain
cpu_id=7
default_p_state=UNDEFINED
do_checkpoint_insts=true
do_quiesce=true
do_statistics_insts=true
dtb=system.cpu07.dtb
eventq_index=0
function_trace=false
function_trace_start=0
interrupts=system.cpu07.interrupts
isa=system.cpu07.isa
itb=system.cpu07.itb
max_insts_all_threads=0
max_insts_any_thread=0
numThreads=1
p_state_clk_gate_bins=20
p_state_clk_gate_max=1000000000000
p_state_clk_gate_min=1000
power_gating_on_idle=false
power_model=
profile=0
progress_interval=0
pwr_gating_latency=300
simpoint_start_insts=
socket_id=0
switched_out=false
syscallRetryLatency=10000
system=system
tracer=system.cpu07.tracer
wait_for_remote_gdb=false
workload=system.cpu07.workload
dcache_port=system.hmc_dev.xbar07.slave[16]
icache_port=system.hmc_dev.xbar07.slave[15]

[system.cpu07.dtb]
type=X86TLB
children=walker
eventq_index=0
size=64
system=system
walker=system.cpu07.dtb.walker

[system.cpu07.dtb.walker]
type=X86PagetableWalker
clk_domain=system.cpu_clk_domain
default_p_state=UNDEFINED
eventq_index=0
num_squash_per_cycle=4
p_state_clk_gate_bins=20
p_state_clk_gate_max=1000000000000
p_state_clk_gate_min=1000
power_model=
system=system
port=system.hmc_dev.xbar07.slave[18]

[system.cpu07.interrupts]
type=X86LocalApic
children=clk_domain
clk_domain=system.cpu07.interrupts.clk_domain
eventq_index=0
int_latency=1000
pio_latency=100000
system=system
int_master=system.hmc_dev.xbar07.slave[19]
int_slave=system.hmc_dev.xbar07.master[17]
pio=system.hmc_dev.xbar07.master[16]

[system.cpu07.interrupts.clk_domain]
type=DerivedClockDomain
clk_divider=16
clk_domain=system.cpu_clk_domain
eventq_index=0

[system.cpu07.isa]
type=X86ISA
eventq_index=0

[system.cpu07.itb]
type=X86TLB
children=walker
eventq_index=0
size=64
system=system
walker=system.cpu07.itb.walker

[system.cpu07.itb.walker]
type=X86PagetableWalker
clk_domain=system.cpu_clk_domain
default_p_state=UNDEFINED
eventq_index=0
num_squash_per_cycle=4
p_state_clk_gate_bins=20
p_state_clk_gate_max=1000000000000
p_state_clk_gate_min=1000
power_model=
system=system
port=system.hmc_dev.xbar07.slave[17]

[system.cpu07.tracer]
type=ExeTracer
eventq_index=0

[system.cpu07.workload]
type=Process
cmd=./hello
cwd=/afs/ece.cmu.edu/usr/mckenziv/Private/742
drivers=
egid=100
env=
errout=cerr
euid=100
eventq_index=0
executable=./hello
gid=100
input=cin
kvmInSE=false
maxStackSize=67108864
output=cout
pgid=100
pid=107
ppid=0
release=5.1.0
simpoint=0
system=system
uid=100
useArchPT=false

[system.cpu08]
type=TimingSimpleCPU
children=dtb interrupts isa itb tracer workload
branchPred=Null
checker=Null
clk_domain=system.cpu_clk_domain
cpu_id=8
default_p_state=UNDEFINED
do_checkpoint_insts=true
do_quiesce=true
do_statistics_insts=true
dtb=system.cpu08.dtb
eventq_index=0
function_trace=false
function_trace_start=0
interrupts=system.cpu08.interrupts
isa=system.cpu08.isa
itb=system.cpu08.itb
max_insts_all_threads=0
max_insts_any_thread=0
numThreads=1
p_state_clk_gate_bins=20
p_state_clk_gate_max=1000000000000
p_state_clk_gate_min=1000
power_gating_on_idle=false
power_model=
profile=0
progress_interval=0
pwr_gating_latency=300
simpoint_start_insts=
socket_id=0
switched_out=false
syscallRetryLatency=10000
system=system
tracer=system.cpu08.tracer
wait_for_remote_gdb=false
workload=system.cpu08.workload
dcache_port=system.hmc_dev.xbar08.slave[16]
icache_port=system.hmc_dev.xbar08.slave[15]

[system.cpu08.dtb]
type=X86TLB
children=walker
eventq_index=0
size=64
system=system
walker=system.cpu08.dtb.walker

[system.cpu08.dtb.walker]
type=X86PagetableWalker
clk_domain=system.cpu_clk_domain
default_p_state=UNDEFINED
eventq_index=0
num_squash_per_cycle=4
p_state_clk_gate_bins=20
p_state_clk_gate_max=1000000000000
p_state_clk_gate_min=1000
power_model=
system=system
port=system.hmc_dev.xbar08.slave[18]

[system.cpu08.interrupts]
type=X86LocalApic
children=clk_domain
clk_domain=system.cpu08.interrupts.clk_domain
eventq_index=0
int_latency=1000
pio_latency=100000
system=system
int_master=system.hmc_dev.xbar08.slave[19]
int_slave=system.hmc_dev.xbar08.master[17]
pio=system.hmc_dev.xbar08.master[16]

[system.cpu08.interrupts.clk_domain]
type=DerivedClockDomain
clk_divider=16
clk_domain=system.cpu_clk_domain
eventq_index=0

[system.cpu08.isa]
type=X86ISA
eventq_index=0

[system.cpu08.itb]
type=X86TLB
children=walker
eventq_index=0
size=64
system=system
walker=system.cpu08.itb.walker

[system.cpu08.itb.walker]
type=X86PagetableWalker
clk_domain=system.cpu_clk_domain
default_p_state=UNDEFINED
eventq_index=0
num_squash_per_cycle=4
p_state_clk_gate_bins=20
p_state_clk_gate_max=1000000000000
p_state_clk_gate_min=1000
power_model=
system=system
port=system.hmc_dev.xbar08.slave[17]

[system.cpu08.tracer]
type=ExeTracer
eventq_index=0

[system.cpu08.workload]
type=Process
cmd=./hello
cwd=/afs/ece.cmu.edu/usr/mckenziv/Private/742
drivers=
egid=100
env=
errout=cerr
euid=100
eventq_index=0
executable=./hello
gid=100
input=cin
kvmInSE=false
maxStackSize=67108864
output=cout
pgid=100
pid=108
ppid=0
release=5.1.0
simpoint=0
system=system
uid=100
useArchPT=false

[system.cpu09]
type=TimingSimpleCPU
children=dtb interrupts isa itb tracer workload
branchPred=Null
checker=Null
clk_domain=system.cpu_clk_domain
cpu_id=9
default_p_state=UNDEFINED
do_checkpoint_insts=true
do_quiesce=true
do_statistics_insts=true
dtb=system.cpu09.dtb
eventq_index=0
function_trace=false
function_trace_start=0
interrupts=system.cpu09.interrupts
isa=system.cpu09.isa
itb=system.cpu09.itb
max_insts_all_threads=0
max_insts_any_thread=0
numThreads=1
p_state_clk_gate_bins=20
p_state_clk_gate_max=1000000000000
p_state_clk_gate_min=1000
power_gating_on_idle=false
power_model=
profile=0
progress_interval=0
pwr_gating_latency=300
simpoint_start_insts=
socket_id=0
switched_out=false
syscallRetryLatency=10000
system=system
tracer=system.cpu09.tracer
wait_for_remote_gdb=false
workload=system.cpu09.workload
dcache_port=system.hmc_dev.xbar09.slave[16]
icache_port=system.hmc_dev.xbar09.slave[15]

[system.cpu09.dtb]
type=X86TLB
children=walker
eventq_index=0
size=64
system=system
walker=system.cpu09.dtb.walker

[system.cpu09.dtb.walker]
type=X86PagetableWalker
clk_domain=system.cpu_clk_domain
default_p_state=UNDEFINED
eventq_index=0
num_squash_per_cycle=4
p_state_clk_gate_bins=20
p_state_clk_gate_max=1000000000000
p_state_clk_gate_min=1000
power_model=
system=system
port=system.hmc_dev.xbar09.slave[18]

[system.cpu09.interrupts]
type=X86LocalApic
children=clk_domain
clk_domain=system.cpu09.interrupts.clk_domain
eventq_index=0
int_latency=1000
pio_latency=100000
system=system
int_master=system.hmc_dev.xbar09.slave[19]
int_slave=system.hmc_dev.xbar09.master[17]
pio=system.hmc_dev.xbar09.master[16]

[system.cpu09.interrupts.clk_domain]
type=DerivedClockDomain
clk_divider=16
clk_domain=system.cpu_clk_domain
eventq_index=0

[system.cpu09.isa]
type=X86ISA
eventq_index=0

[system.cpu09.itb]
type=X86TLB
children=walker
eventq_index=0
size=64
system=system
walker=system.cpu09.itb.walker

[system.cpu09.itb.walker]
type=X86PagetableWalker
clk_domain=system.cpu_clk_domain
default_p_state=UNDEFINED
eventq_index=0
num_squash_per_cycle=4
p_state_clk_gate_bins=20
p_state_clk_gate_max=1000000000000
p_state_clk_gate_min=1000
power_model=
system=system
port=system.hmc_dev.xbar09.slave[17]

[system.cpu09.tracer]
type=ExeTracer
eventq_index=0

[system.cpu09.workload]
type=Process
cmd=./hello
cwd=/afs/ece.cmu.edu/usr/mckenziv/Private/742
drivers=
egid=100
env=
errout=cerr
euid=100
eventq_index=0
executable=./hello
gid=100
input=cin
kvmInSE=false
maxStackSize=67108864
output=cout
pgid=100
pid=109
ppid=0
release=5.1.0
simpoint=0
system=system
uid=100
useArchPT=false

[system.cpu10]
type=TimingSimpleCPU
children=dtb interrupts isa itb tracer workload
branchPred=Null
checker=Null
clk_domain=system.cpu_clk_domain
cpu_id=10
default_p_state=UNDEFINED
do_checkpoint_insts=true
do_quiesce=true
do_statistics_insts=true
dtb=system.cpu10.dtb
eventq_index=0
function_trace=false
function_trace_start=0
interrupts=system.cpu10.interrupts
isa=system.cpu10.isa
itb=system.cpu10.itb
max_insts_all_threads=0
max_insts_any_thread=0
numThreads=1
p_state_clk_gate_bins=20
p_state_clk_gate_max=1000000000000
p_state_clk_gate_min=1000
power_gating_on_idle=false
power_model=
profile=0
progress_interval=0
pwr_gating_latency=300
simpoint_start_insts=
socket_id=0
switched_out=false
syscallRetryLatency=10000
system=system
tracer=system.cpu10.tracer
wait_for_remote_gdb=false
workload=system.cpu10.workload
dcache_port=system.hmc_dev.xbar10.slave[16]
icache_port=system.hmc_dev.xbar10.slave[15]

[system.cpu10.dtb]
type=X86TLB
children=walker
eventq_index=0
size=64
system=system
walker=system.cpu10.dtb.walker

[system.cpu10.dtb.walker]
type=X86PagetableWalker
clk_domain=system.cpu_clk_domain
default_p_state=UNDEFINED
eventq_index=0
num_squash_per_cycle=4
p_state_clk_gate_bins=20
p_state_clk_gate_max=1000000000000
p_state_clk_gate_min=1000
power_model=
system=system
port=system.hmc_dev.xbar10.slave[18]

[system.cpu10.interrupts]
type=X86LocalApic
children=clk_domain
clk_domain=system.cpu10.interrupts.clk_domain
eventq_index=0
int_latency=1000
pio_latency=100000
system=system
int_master=system.hmc_dev.xbar10.slave[19]
int_slave=system.hmc_dev.xbar10.master[17]
pio=system.hmc_dev.xbar10.master[16]

[system.cpu10.interrupts.clk_domain]
type=DerivedClockDomain
clk_divider=16
clk_domain=system.cpu_clk_domain
eventq_index=0

[system.cpu10.isa]
type=X86ISA
eventq_index=0

[system.cpu10.itb]
type=X86TLB
children=walker
eventq_index=0
size=64
system=system
walker=system.cpu10.itb.walker

[system.cpu10.itb.walker]
type=X86PagetableWalker
clk_domain=system.cpu_clk_domain
default_p_state=UNDEFINED
eventq_index=0
num_squash_per_cycle=4